ModelCases/GERMANY_PCM_nodal_jan_week1_connected_case/Data_GERMANY_PCM_nodal_jan_week1_connected/linedata.csv
From_zone,To_zone,from_bus,to_bus,X,Capacity (MW),Loss (%)
Amprion,Amprion,B443,B473,2.300565,1698.103,0.0
TransnetBW,TransnetBW,B504,B583,10.111997,1698.103,0.0
Amprion,Amprion,B494,B435,2.371226,1698.103,0.0
TransnetBW,TransnetBW,B381,B363,1.514734,491.556,0.0
Amprion,TransnetBW,B639,B680,11.987575,1698.103,0.0
TransnetBW,TransnetBW,B21,B22,4.679957,491.556,0.0
Amprion,Amprion,B494,B428,8.395508,1698.103,0.0
TransnetBW,TransnetBW,B322,B633,3.114997,1698.103,0.0
TransnetBW,TransnetBW,B633,B365,1.009911,1698.103,0.0
TransnetBW,TransnetBW,B583,B582,4.531497,1698.103,0.0
TransnetBW,TransnetBW,B653,B511,1.554039,3396.205,0.0
50Hertz,50Hertz,B321,B291,2.724658,491.556,0.0
TransnetBW,TransnetBW,B37,B38,31.515684,491.556,0.0
TransnetBW,TenneT,B410,B516,10.827114,1698.103,0.0
Amprion,Amprion,B195,B693,0.662611,3396.205,0.0
Amprion,Amprion,B147,B280,2.602169,491.556,0.0
Amprion,Amprion,B343,B281,1.638638,1698.103,0.0
Amprion,Amprion,B47,B556,2.622109,983.112,0.0
Amprion,Amprion,B47,B147,1.042393,983.112,0.0
Amprion,Amprion,B623,B195,2.336456,1698.103,0.0
Amprion,Amprion,B48,B474,0.391318,983.112,0.0
Amprion,Amprion,B49,B262,0.317317,3396.205,0.0
Amprion,Amprion,B74,B101,1.935693,1698.103,0.0
TenneT,TenneT,B278,B767,4.770576,3396.205,0.0
Amprion,Amprion,B470,B137,3.320795,491.556,0.0
TransnetBW,TransnetBW,B722,B634,5.853303,491.556,0.0
Amprion,Amprion,B493,B188,1.137614,491.556,0.0
Amprion,Amprion,B454,B195,2.657986,3396.205,0.0
50Hertz,50Hertz,B159,B672,11.959865,491.556,0.0
50Hertz,50Hertz,B686,B72,9.385296,1698.103,0.0
Amprion,Amprion,B55,B229,0.918589,491.556,0.0
Amprion,Amprion,B229,B213,1.290191,491.556,0.0
TransnetBW,TransnetBW,B379,B378,4.965206,3396.205,0.0
Amprion,Amprion,B492,B247,3.415808,983.112,0.0
TransnetBW,TransnetBW,B287,B737,2.569337,3396.205,0.0
Amprion,Amprion,B491,B60,2.452984,3396.205,0.0
Amprion,Amprion,B235,B61,2.080622,983.112,0.0
Amprion,Amprion,B62,B428,2.519983,3396.205,0.0
Amprion,Amprion,B649,B176,12.648155,491.556,0.0
Amprion,Amprion,B175,B64,3.24414,3396.205,0.0
Amprion,Amprion,B787,B267,0.636579,983.112,0.0
Amprion,Amprion,B788,B141,0.680031,3396.205,0.0
Amprion,Amprion,B66,B384,1.178336,3396.205,0.0
Amprion,Amprion,B67,B619,5.084423,491.556,0.0
Amprion,Amprion,B782,B620,4.560151,1698.103,0.0
TenneT,TenneT,B668,B313,8.356794,983.112,0.0
TenneT,TenneT,B119,B609,2.570599,3396.205,0.0
TenneT,TenneT,B551,B539,6.708954,983.112,0.0
Amprion,Amprion,B146,B217,2.786377,3396.205,0.0
TenneT,TenneT,B786,B181,7.082847,3396.205,0.0
Amprion,Amprion,B216,B175,1.459049,3396.205,0.0
TransnetBW,TransnetBW,B219,B605,1.716009,3396.205,0.0
Amprion,Amprion,B423,B86,8.622384,983.112,0.0
Amprion,Amprion,B55,B213,2.221236,491.556,0.0
TransnetBW,TransnetBW,B106,B417,1.831742,983.112,0.0
TenneT,TenneT,B30,B71,0.950955,3396.205,0.0
TenneT,TenneT,B76,B554,0.632614,3396.205,0.0
Amprion,Amprion,B791,B775,0.442743,3396.205,0.0
TenneT,TenneT,B299,B476,3.52088,3396.205,0.0
50Hertz,50Hertz,B437,B88,7.923359,3396.205,0.0
TransnetBW,TransnetBW,B204,B653,2.23886,3396.205,0.0
TransnetBW,TransnetBW,B225,B739,0.557675,983.112,0.0
TransnetBW,TransnetBW,B739,B225,1.128169,491.556,0.0
TenneT,50Hertz,B284,B391,5.264543,3396.205,0.0
TenneT,TenneT,B77,B143,0.383286,3396.205,0.0
Amprion,Amprion,B86,B323,7.879236,983.112,0.0
TransnetBW,TransnetBW,B702,B79,1.010844,1698.103,0.0
Amprion,Amprion,B190,B112,4.169691,3396.205,0.0
TransnetBW,TransnetBW,B679,B377,3.067628,983.112,0.0
TransnetBW,TransnetBW,B680,B378,2.412575,3396.205,0.0
Amprion,Amprion,B266,B247,4.913039,491.556,0.0
50Hertz,50Hertz,B391,B88,0.259595,3396.205,0.0
TransnetBW,TransnetBW,B106,B90,4.924748,491.556,0.0
TransnetBW,TransnetBW,B89,B330,0.754715,491.556,0.0
Amprion,TransnetBW,B641,B268,10.934483,983.112,0.0
TransnetBW,TransnetBW,B462,B108,7.304105,983.112,0.0
TransnetBW,TransnetBW,B120,B330,7.683383,491.556,0.0
TransnetBW,TransnetBW,B331,B269,7.836421,1698.103,0.0
TenneT,TenneT,B273,B460,1.312596,3396.205,0.0
Amprion,TransnetBW,B113,B440,8.271793,491.556,0.0
TransnetBW,TransnetBW,B22,B659,2.053428,491.556,0.0
Amprion,Amprion,B451,B641,0.929585,1474.668,0.0
TransnetBW,TransnetBW,B507,B220,0.639889,3396.205,0.0
50Hertz,TenneT,B88,B284,5.355105,3396.205,0.0
Amprion,Amprion,B99,B648,0.39322,3396.205,0.0
Amprion,Amprion,B376,B46,5.896488,491.556,0.0
TransnetBW,TransnetBW,B105,B388,13.65021,983.112,0.0
TransnetBW,TransnetBW,B689,B379,6.087216,3396.205,0.0
Amprion,Amprion,B401,B95,9.779073,1698.103,0.0
TransnetBW,TransnetBW,B197,B385,5.933023,491.556,0.0
TransnetBW,TransnetBW,B513,B200,4.853782,1698.103,0.0
TransnetBW,TransnetBW,B105,B104,1.3763,983.112,0.0
TransnetBW,TransnetBW,B689,B370,2.07076,3396.205,0.0
TransnetBW,TransnetBW,B417,B22,0.849013,491.556,0.0
TransnetBW,TransnetBW,B94,B418,0.34415,3396.205,0.0
TransnetBW,TransnetBW,B106,B402,2.083197,983.112,0.0
Amprion,Amprion,B47,B548,1.50734,983.112,0.0
Amprion,Amprion,B614,B472,0.887483,983.112,0.0
TransnetBW,TransnetBW,B168,B517,0.974009,3396.205,0.0
50Hertz,50Hertz,B754,B749,7.612331,3396.205,0.0
TenneT,Amprion,B533,B407,6.967113,983.112,0.0
TenneT,TenneT,B534,B656,5.539662,3396.205,0.0
TenneT,TenneT,B313,B592,9.538302,491.556,0.0
TenneT,TenneT,B314,B593,7.798633,1698.103,0.0
Amprion,Amprion,B695,B241,2.12206,1698.103,0.0
Amprion,Amprion,B174,B740,0.869773,983.112,0.0
Amprion,Amprion,B122,B626,10.034106,491.556,0.0
Amprion,Amprion,B123,B627,8.200779,1698.103,0.0
TenneT,TenneT,B422,B445,3.822211,3396.205,0.0
TransnetBW,TransnetBW,B133,B504,15.637396,1698.103,0.0
TransnetBW,TransnetBW,B653,B87,4.433748,3396.205,0.0
Amprion,Amprion,B389,B359,8.930614,3396.205,0.0
Amprion,Amprion,B19,B95,9.241625,1698.103,0.0
TransnetBW,TransnetBW,B463,B736,6.823384,5094.308,0.0
TenneT,50Hertz,B655,B611,8.238934,3396.205,0.0
TenneT,TenneT,B650,B116,1.73599,491.556,0.0
TenneT,TenneT,B234,B198,6.569678,1698.103,0.0
Amprion,Amprion,B164,B347,1.084724,983.112,0.0
TransnetBW,TransnetBW,B510,B206,4.458779,491.556,0.0
TransnetBW,TransnetBW,B633,B221,3.395747,1698.103,0.0
Amprion,Amprion,B564,B67,1.78516,983.112,0.0
Amprion,Amprion,B348,B207,0.556752,983.112,0.0
TransnetBW,TransnetBW,B120,B37,11.10535,491.556,0.0
TransnetBW,TransnetBW,B616,B210,0.328968,1698.103,0.0
Amprion,Amprion,B425,B191,1.335615,491.556,0.0
Amprion,Amprion,B426,B129,1.087859,1698.103,0.0
Amprion,Amprion,B137,B468,1.549262,491.556,0.0
Amprion,Amprion,B92,B263,1.789314,983.112,0.0
Amprion,Amprion,B97,B265,1.250871,3396.205,0.0
Amprion,Amprion,B632,B183,0.41372,3396.205,0.0
Amprion,Amprion,B81,B63,0.250487,3396.205,0.0
Amprion,Amprion,B102,B383,2.946886,983.112,0.0
Amprion,Amprion,B103,B121,4.061101,491.556,0.0
50Hertz,50Hertz,B748,B530,20.434709,491.556,0.0
50Hertz,50Hertz,B749,B531,16.714905,1698.103,0.0
Amprion,Amprion,B694,B237,1.549518,491.556,0.0
Amprion,Amprion,B695,B238,2.940337,1698.103,0.0
TenneT,TenneT,B126,B172,28.156717,173.162,0.0
TransnetBW,TransnetBW,B517,B170,0.221636,3396.205,0.0
Amprion,Amprion,B556,B218,1.322981,983.112,0.0
TransnetBW,TransnetBW,B510,B789,1.047513,491.556,0.0
TransnetBW,TransnetBW,B511,B221,0.85621,1698.103,0.0
Amprion,Amprion,B434,B425,3.742173,491.556,0.0
Amprion,Amprion,B435,B426,3.059421,1698.103,0.0
TenneT,TenneT,B786,B131,8.122256,3396.205,0.0
TransnetBW,TransnetBW,B89,B37,6.331141,491.556,0.0
TransnetBW,TransnetBW,B331,B322,4.560016,1698.103,0.0
50Hertz,50Hertz,B531,B161,1.170699,1698.103,0.0
TransnetBW,TransnetBW,B221,B132,1.549566,3396.205,0.0
50Hertz,50Hertz,B748,B432,5.790519,983.112,0.0
TenneT,TenneT,B272,B177,4.505284,983.112,0.0
TransnetBW,TransnetBW,B587,B503,33.874549,491.556,0.0
TransnetBW,TransnetBW,B588,B504,27.687371,1698.103,0.0
Amprion,Amprion,B212,B776,0.488078,491.556,0.0
TenneT,TenneT,B299,B70,0.439039,3396.205,0.0
Amprion,Amprion,B136,B424,0.907365,3396.205,0.0
Amprion,Amprion,B471,B139,0.600384,3396.205,0.0
Amprion,Amprion,B152,B687,1.037199,3396.205,0.0
TenneT,TenneT,B525,B719,1.126981,3396.205,0.0
TransnetBW,TransnetBW,B115,B511,1.284036,3396.205,0.0
Amprion,Amprion,B443,B788,3.52459,1698.103,0.0
Amprion,Amprion,B494,B424,2.712347,3396.205,0.0
Amprion,Amprion,B493,B59,0.436856,983.112,0.0
Amprion,Amprion,B493,B188,0.570397,983.112,0.0
Amprion,Amprion,B649,B776,8.38856,491.556,0.0
Amprion,Amprion,B147,B301,1.237617,983.112,0.0
Amprion,Amprion,B148,B302,1.014021,3396.205,0.0
Amprion,Amprion,B281,B557,2.524366,3396.205,0.0
Amprion,Amprion,B429,B150,0.769035,983.112,0.0
Amprion,Amprion,B320,B433,0.428618,3396.205,0.0
TenneT,TenneT,B525,B279,7.199805,3396.205,0.0
Amprion,Amprion,B342,B124,3.492723,983.112,0.0
Amprion,Amprion,B218,B156,4.303924,491.556,0.0
Amprion,Amprion,B433,B157,3.522272,1698.103,0.0
Amprion,Amprion,B237,B701,2.041852,491.556,0.0
TransnetBW,TransnetBW,B618,B517,0.927773,3396.205,0.0
TransnetBW,TransnetBW,B517,B519,1.585346,3396.205,0.0
Amprion,Amprion,B725,B274,10.307808,3396.205,0.0
TransnetBW,TransnetBW,B162,B736,1.099283,1698.103,0.0
Amprion,Amprion,B490,B276,1.340114,983.112,0.0
Amprion,Amprion,B163,B423,1.651692,983.112,0.0
Amprion,Amprion,B164,B163,1.141794,983.112,0.0
TransnetBW,TransnetBW,B682,B722,22.056239,491.556,0.0
TransnetBW,TransnetBW,B699,B723,11.599444,1698.103,0.0
TransnetBW,TransnetBW,B160,B21,4.28894,983.112,0.0
TenneT,TenneT,B521,B563,0.373985,983.112,0.0
TransnetBW,TransnetBW,B441,B167,1.163908,3396.205,0.0
TenneT,TenneT,B134,B116,5.767539,983.112,0.0
Amprion,Amprion,B490,B542,2.995772,983.112,0.0
Amprion,Amprion,B491,B60,2.450434,3396.205,0.0
TransnetBW,TransnetBW,B702,B220,2.045734,3396.205,0.0
Amprion,Amprion,B429,B218,0.253828,1966.224,0.0
Amprion,Amprion,B86,B337,1.745108,983.112,0.0
Amprion,Amprion,B3,B2,0.598528,3396.205,0.0
Amprion,Amprion,B281,B596,1.81856,3396.205,0.0
Amprion,Amprion,B548,B239,2.458104,983.112,0.0
TenneT,TenneT,B313,B696,4.332991,983.112,0.0
TransnetBW,TransnetBW,B381,B595,3.028271,983.112,0.0
TransnetBW,TransnetBW,B169,B170,0.72092,3396.205,0.0
TenneT,TenneT,B646,B534,3.458264,3396.205,0.0
TenneT,TenneT,B273,B452,1.708864,3396.205,0.0
TenneT,TenneT,B173,B765,1.992038,983.112,0.0
Amprion,Amprion,B301,B694,1.245669,983.112,0.0
Amprion,Amprion,B14,B565,0.549537,1698.103,0.0
TransnetBW,TransnetBW,B718,B680,2.882655,3396.205,0.0
TenneT,TenneT,B703,B570,2.727983,983.112,0.0
TenneT,50Hertz,B13,B530,31.408769,491.556,0.0
TenneT,50Hertz,B522,B161,24.548817,1698.103,0.0
TenneT,TenneT,B316,B314,7.017718,3396.205,0.0
TransnetBW,TransnetBW,B133,B168,1.46329,3396.205,0.0
Amprion,Amprion,B594,B235,0.438545,983.112,0.0
50Hertz,50Hertz,B756,B16,6.259614,3396.205,0.0
Amprion,Amprion,B433,B152,1.578865,3396.205,0.0
Amprion,Amprion,B356,B357,1.245856,983.112,0.0
Amprion,Amprion,B153,B358,1.31951,3396.205,0.0
TransnetBW,TransnetBW,B634,B171,22.83389,491.556,0.0
TransnetBW,TransnetBW,B582,B635,18.656074,1698.103,0.0
Amprion,Amprion,B560,B356,1.828294,983.112,0.0
TenneT,TenneT,B714,B416,2.462098,3396.205,0.0
50Hertz,50Hertz,B23,B390,8.611854,983.112,0.0
TenneT,TenneT,B505,B422,2.071293,3396.205,0.0
TenneT,TenneT,B505,B223,1.507414,3396.205,0.0
TenneT,TenneT,B223,B189,0.660199,6792.41,0.0
Amprion,Amprion,B190,B309,0.379007,1698.103,0.0
Amprion,Amprion,B442,B137,2.767743,491.556,0.0
Amprion,Amprion,B112,B384,2.306275,3396.205,0.0
Amprion,Amprion,B112,B384,2.306758,3396.205,0.0
TenneT,TenneT,B543,B421,0.431651,983.112,0.0
Amprion,Amprion,B68,B424,1.725611,1698.103,0.0
Amprion,Amprion,B424,B351,2.079282,3396.205,0.0
Amprion,Amprion,B627,B401,2.580247,1698.103,0.0
Amprion,Amprion,B626,B96,1.250708,983.112,0.0
Amprion,Amprion,B627,B199,1.024925,3396.205,0.0
TenneT,TenneT,B198,B416,3.068095,1698.103,0.0
Amprion,Amprion,B348,B542,3.434898,491.556,0.0
TenneT,Amprion,B608,B619,3.147351,983.112,0.0
Amprion,Amprion,B245,B713,2.247348,3396.205,0.0
Amprion,Amprion,B231,B163,6.287893,983.112,0.0
TransnetBW,TransnetBW,B385,B105,2.071917,983.112,0.0
TransnetBW,TransnetBW,B200,B689,1.744721,3396.205,0.0
Amprion,Amprion,B176,B564,8.355471,491.556,0.0
TransnetBW,TransnetBW,B595,B202,2.980543,983.112,0.0
50Hertz,50Hertz,B317,B432,1.361775,983.112,0.0
Amprion,Amprion,B81,B494,1.094479,1698.103,0.0
Amprion,Amprion,B194,B60,1.905012,1698.103,0.0
Amprion,Amprion,B625,B339,2.462173,3396.205,0.0
Amprion,Amprion,B122,B427,8.698144,491.556,0.0
Amprion,Amprion,B643,B428,5.424152,1698.103,0.0
Amprion,Amprion,B644,B215,3.336052,3396.205,0.0
Amprion,Amprion,B146,B777,1.60092,3396.205,0.0
Amprion,Amprion,B135,B777,0.986643,3396.205,0.0
Amprion,Amprion,B213,B212,2.70833,983.112,0.0
TenneT,TenneT,B40,B719,2.771174,3396.205,0.0
Amprion,Amprion,B215,B362,0.283268,3396.205,0.0
Amprion,Amprion,B151,B218,0.537455,983.112,0.0
Amprion,Amprion,B148,B343,0.730544,1698.103,0.0
50Hertz,50Hertz,B628,B288,13.44649,983.112,0.0
TransnetBW,TransnetBW,B210,B647,4.448333,3396.205,0.0
50Hertz,TenneT,B611,B422,8.460513,3396.205,0.0
Amprion,Amprion,B149,B244,0.36203,3396.205,0.0
TenneT,TenneT,B726,B224,1.450837,983.112,0.0
TenneT,TenneT,B182,B294,1.298523,3396.205,0.0
Amprion,Amprion,B472,B349,0.910972,983.112,0.0
Amprion,Amprion,B384,B358,6.343581,3396.205,0.0
TenneT,TenneT,B688,B224,1.856652,983.112,0.0
TransnetBW,TransnetBW,B665,B132,1.106422,1698.103,0.0
TransnetBW,TransnetBW,B576,B707,12.34118,1698.103,0.0
50Hertz,50Hertz,B186,B165,3.328106,983.112,0.0
TransnetBW,TransnetBW,B717,B225,0.944099,983.112,0.0
TransnetBW,TransnetBW,B621,B581,3.264568,3396.205,0.0
TransnetBW,TransnetBW,B106,B631,2.597008,983.112,0.0
TransnetBW,Amprion,B370,B412,7.112593,3396.205,0.0
TransnetBW,TransnetBW,B369,B307,2.866932,491.556,0.0
TenneT,TenneT,B226,B774,4.564343,3396.205,0.0
TenneT,TenneT,B779,B716,3.062753,3396.205,0.0
TenneT,TenneT,B227,B780,0.267134,3396.205,0.0
TransnetBW,TransnetBW,B683,B699,6.513684,1698.103,0.0
Amprion,Amprion,B493,B145,1.661722,983.112,0.0
Amprion,TenneT,B78,B691,14.939834,491.556,0.0
TenneT,Amprion,B692,B775,5.633597,3396.205,0.0
Amprion,Amprion,B556,B78,18.125022,491.556,0.0
Amprion,Amprion,B258,B124,2.143252,983.112,0.0
Amprion,Amprion,B252,B125,1.749241,3396.205,0.0
Amprion,Amprion,B470,B156,2.002371,983.112,0.0
Amprion,Amprion,B471,B157,1.635109,3396.205,0.0
Amprion,Amprion,B301,B231,0.631829,983.112,0.0
Amprion,Amprion,B345,B136,1.303408,3396.205,0.0
Amprion,Amprion,B235,B427,1.001847,983.112,0.0
Amprion,Amprion,B687,B302,3.512066,1698.103,0.0
Amprion,Amprion,B687,B518,1.289146,3396.205,0.0
TenneT,TenneT,B692,B234,0.952908,3396.205,0.0
TenneT,TenneT,B416,B234,9.646691,1698.103,0.0
Amprion,Amprion,B548,B236,1.111754,983.112,0.0
Amprion,Amprion,B701,B147,0.671101,983.112,0.0
Amprion,Amprion,B238,B148,0.545488,3396.205,0.0
Amprion,Amprion,B247,B746,0.440271,983.112,0.0
Amprion,Amprion,B502,B301,4.311208,491.556,0.0
Amprion,Amprion,B150,B117,0.901655,983.112,0.0
Amprion,Amprion,B150,B429,1.444044,491.556,0.0
TenneT,TenneT,B778,B119,10.306989,1698.103,0.0
Amprion,Amprion,B501,B149,1.669469,1698.103,0.0
Amprion,Amprion,B244,B500,0.628617,3396.205,0.0
Amprion,Amprion,B298,B644,0.592656,3396.205,0.0
Amprion,Amprion,B338,B339,3.605693,3396.205,0.0
Amprion,Amprion,B166,B222,10.377156,491.556,0.0
TenneT,TenneT,B603,B119,1.54321,3396.205,0.0
50Hertz,50Hertz,B165,B530,3.763781,983.112,0.0
TransnetBW,TransnetBW,B211,B210,2.38715,3396.205,0.0
Amprion,Amprion,B121,B740,1.658114,983.112,0.0
Amprion,TenneT,B176,B691,10.441359,491.556,0.0
Amprion,TenneT,B713,B692,2.310182,3396.205,0.0
TenneT,TenneT,B116,B313,3.913674,983.112,0.0
Amprion,Amprion,B145,B350,0.570889,1966.224,0.0
Amprion,Amprion,B248,B142,1.705636,3396.205,0.0
Amprion,Amprion,B442,B266,1.441811,491.556,0.0
Amprion,TransnetBW,B113,B440,8.231935,491.556,0.0
Amprion,Amprion,B725,B255,2.528987,3396.205,0.0
Amprion,Amprion,B253,B129,2.503342,3396.205,0.0
Amprion,Amprion,B496,B117,0.852626,983.112,0.0
Amprion,Amprion,B184,B240,0.930123,983.112,0.0
TenneT,TenneT,B710,B499,5.755778,1698.103,0.0
TenneT,TenneT,B498,B553,33.913471,491.556,0.0
TenneT,TenneT,B554,B710,21.974565,1698.103,0.0
Amprion,Amprion,B542,B493,1.628559,983.112,0.0
Amprion,Amprion,B60,B494,1.31978,3396.205,0.0
Amprion,Amprion,B205,B100,2.233337,3396.205,0.0
Amprion,Amprion,B205,B512,5.358656,3396.205,0.0
Amprion,Amprion,B230,B791,2.48521,3396.205,0.0
Amprion,Amprion,B253,B528,1.318752,3396.205,0.0
Amprion,Amprion,B128,B423,0.653269,491.556,0.0
Amprion,Amprion,B725,B253,1.957892,3396.205,0.0
Amprion,Amprion,B231,B694,1.27723,491.556,0.0
TransnetBW,TransnetBW,B637,B211,3.993244,1698.103,0.0
TransnetBW,TransnetBW,B527,B647,4.178855,3396.205,0.0
TransnetBW,TransnetBW,B246,B167,2.336423,3396.205,0.0
TenneT,TenneT,B732,B314,0.724466,3396.205,0.0
Amprion,Amprion,B374,B254,10.476985,491.556,0.0
Amprion,Amprion,B470,B258,1.016077,491.556,0.0
Amprion,Amprion,B471,B252,0.830334,1698.103,0.0
50Hertz,TenneT,B611,B741,5.120892,3396.205,0.0
TenneT,TenneT,B278,B690,5.621255,3396.205,0.0
Amprion,Amprion,B341,B249,1.273746,3396.205,0.0
Amprion,Amprion,B351,B353,1.386351,3396.205,0.0
TenneT,TenneT,B716,B226,1.280841,3396.205,0.0
TransnetBW,TransnetBW,B269,B660,0.522509,1698.103,0.0
TenneT,50Hertz,B13,B158,8.947857,491.556,0.0
50Hertz,TenneT,B607,B522,9.18393,1698.103,0.0
TenneT,TenneT,B773,B615,5.740305,3396.205,0.0
50Hertz,50Hertz,B233,B193,0.383498,491.556,0.0
50Hertz,50Hertz,B289,B753,8.586679,1698.103,0.0
50Hertz,50Hertz,B289,B753,8.586679,1698.103,0.0
50Hertz,50Hertz,B444,B289,11.443091,1698.103,0.0
50Hertz,50Hertz,B569,B289,17.481874,1698.103,0.0
50Hertz,50Hertz,B439,B601,8.343735,491.556,0.0
50Hertz,50Hertz,B602,B396,20.626569,1698.103,0.0
Amprion,Amprion,B644,B648,28.118634,1698.103,0.0
Amprion,Amprion,B644,B340,16.550639,1698.103,0.0
Amprion,Amprion,B612,B596,6.006525,1698.103,0.0
Amprion,Amprion,B459,B154,2.996302,1698.103,0.0
Amprion,Amprion,B506,B154,0.478603,1698.103,0.0
Amprion,Amprion,B154,B725,3.599752,1698.103,0.0
Amprion,Amprion,B154,B725,3.599752,1698.103,0.0
Amprion,Amprion,B357,B383,7.643794,983.112,0.0
Amprion,Amprion,B353,B384,18.032873,1698.103,0.0
Amprion,Amprion,B423,B541,1.513074,983.112,0.0
Amprion,Amprion,B427,B357,5.03232,491.556,0.0
Amprion,Amprion,B541,B560,1.703806,983.112,0.0
Amprion,Amprion,B427,B357,5.03232,491.556,0.0
Amprion,Amprion,B725,B524,0.364064,5094.308,0.0
Amprion,Amprion,B434,B420,0.703038,983.112,0.0
Amprion,Amprion,B494,B528,3.242922,1698.103,0.0
Amprion,Amprion,B535,B2,0.520137,1698.103,0.0
Amprion,Amprion,B2,B3,1.202008,1698.103,0.0
Amprion,Amprion,B3,B596,0.583433,1698.103,0.0
Amprion,Amprion,B535,B2,0.520137,1698.103,0.0
Amprion,Amprion,B2,B3,1.202008,1698.103,0.0
Amprion,Amprion,B3,B596,0.583433,1698.103,0.0
Amprion,Amprion,B776,B466,7.518673,491.556,0.0
Amprion,Amprion,B496,B371,1.035286,491.556,0.0
Amprion,Amprion,B496,B371,1.035286,491.556,0.0
50Hertz,50Hertz,B763,B629,26.442643,1698.103,0.0
50Hertz,50Hertz,B629,B550,1.944337,1698.103,0.0
Amprion,Amprion,B4,B496,2.556869,491.556,0.0
Amprion,Amprion,B4,B496,2.535215,491.556,0.0
TransnetBW,TenneT,B410,B516,10.833134,1698.103,0.0
TenneT,TenneT,B455,B515,0.848948,983.112,0.0
Amprion,Amprion,B495,B466,0.526627,491.556,0.0
50Hertz,50Hertz,B759,B5,0.681447,1698.103,0.0
50Hertz,50Hertz,B5,B6,0.705592,1698.103,0.0
50Hertz,50Hertz,B6,B406,21.256725,1698.103,0.0
50Hertz,50Hertz,B759,B5,0.681447,1698.103,0.0
50Hertz,50Hertz,B5,B6,0.705592,1698.103,0.0
50Hertz,50Hertz,B6,B406,21.256725,1698.103,0.0
TransnetBW,TransnetBW,B457,B409,9.298191,491.556,0.0
TenneT,TenneT,B578,B315,1.366643,1698.103,0.0
TenneT,TenneT,B445,B286,7.00054,1698.103,0.0
TenneT,TenneT,B545,B546,6.271991,1698.103,0.0
50Hertz,50Hertz,B566,B7,1.039367,1698.103,0.0
50Hertz,50Hertz,B566,B7,1.039367,1698.103,0.0
Amprion,Amprion,B470,B349,5.701063,491.556,0.0
Amprion,Amprion,B470,B8,6.042075,491.556,0.0
TenneT,50Hertz,B522,B607,9.159463,1698.103,0.0
50Hertz,50Hertz,B764,B657,16.987937,491.556,0.0
50Hertz,50Hertz,B764,B657,16.987937,491.556,0.0
TenneT,TenneT,B299,B445,7.302633,1698.103,0.0
TenneT,TenneT,B299,B445,7.302633,1698.103,0.0
Amprion,Amprion,B276,B743,1.482302,491.556,0.0
TenneT,TenneT,B697,B300,1.408763,1698.103,0.0
TenneT,TenneT,B295,B10,6.651564,1698.103,0.0
TenneT,TenneT,B295,B10,6.647402,1698.103,0.0
Amprion,Amprion,B349,B496,3.015337,491.556,0.0
Amprion,Amprion,B349,B496,3.015337,491.556,0.0
Amprion,Amprion,B744,B743,1.675408,491.556,0.0
TenneT,TenneT,B368,B483,13.943248,1698.103,0.0
50Hertz,TenneT,B390,B404,9.698605,491.556,0.0
Amprion,Amprion,B612,B341,2.067163,1698.103,0.0
Amprion,Amprion,B596,B341,4.009502,1698.103,0.0
Amprion,Amprion,B341,B11,0.864232,1698.103,0.0
Amprion,Amprion,B11,B479,1.829583,1698.103,0.0
Amprion,Amprion,B341,B11,0.864232,1698.103,0.0
Amprion,Amprion,B11,B479,1.829583,1698.103,0.0
Amprion,TenneT,B559,B656,15.981754,1698.103,0.0
TenneT,TenneT,B656,B774,11.809547,1698.103,0.0
Amprion,Amprion,B389,B559,10.045198,1698.103,0.0
Amprion,Amprion,B559,B367,12.465115,1698.103,0.0
Amprion,Amprion,B642,B367,21.950565,1698.103,0.0
Amprion,TenneT,B559,B656,15.981754,1698.103,0.0
TenneT,TenneT,B571,B655,3.958689,1698.103,0.0
TenneT,TenneT,B571,B655,3.958689,1698.103,0.0
TenneT,TenneT,B655,B741,6.630758,1698.103,0.0
TenneT,TenneT,B655,B741,6.630758,1698.103,0.0
TenneT,TenneT,B333,B285,0.722748,1698.103,0.0
TenneT,TenneT,B333,B285,0.722748,1698.103,0.0
Amprion,Amprion,B355,B512,7.869779,1698.103,0.0
Amprion,50Hertz,B559,B770,31.912835,1698.103,0.0
50Hertz,50Hertz,B771,B770,17.859172,1698.103,0.0
50Hertz,TenneT,B12,B13,6.17277,491.556,0.0
Amprion,Amprion,B359,B454,12.453826,1698.103,0.0
50Hertz,50Hertz,B396,B277,17.406303,1698.103,0.0
TenneT,TenneT,B539,B606,22.547838,491.556,0.0
TenneT,TenneT,B523,B522,11.892634,1698.103,0.0
50Hertz,50Hertz,B756,B658,13.692023,1698.103,0.0
TenneT,TenneT,B368,B509,1.993687,1698.103,0.0
TenneT,TenneT,B555,B578,3.485557,1698.103,0.0
TenneT,TenneT,B555,B578,3.485557,1698.103,0.0
TenneT,TenneT,B690,B555,5.586763,1698.103,0.0
TenneT,TenneT,B690,B555,5.586763,1698.103,0.0
50Hertz,50Hertz,B292,B537,0.735599,1698.103,0.0
50Hertz,50Hertz,B684,B573,2.367401,1698.103,0.0
50Hertz,50Hertz,B684,B573,2.367401,1698.103,0.0
TransnetBW,TransnetBW,B18,B513,6.706012,1698.103,0.0
TransnetBW,TransnetBW,B329,B589,11.520613,1698.103,0.0
TenneT,Amprion,B547,B34,9.99829,491.556,0.0
Amprion,Amprion,B782,B14,1.267399,3396.205,0.0
50Hertz,50Hertz,B657,B15,8.646784,1474.668,0.0
50Hertz,50Hertz,B721,B16,14.27229,1698.103,0.0
50Hertz,50Hertz,B16,B289,10.445684,1698.103,0.0
TenneT,TenneT,B719,B593,6.670278,1698.103,0.0
Amprion,Amprion,B623,B65,0.524241,1698.103,0.0
Amprion,Amprion,B65,B19,1.177818,1698.103,0.0
Amprion,Amprion,B19,B405,1.768226,1698.103,0.0
TransnetBW,TransnetBW,B370,B387,6.606254,1698.103,0.0
TransnetBW,TransnetBW,B370,B387,6.606254,1698.103,0.0
50Hertz,50Hertz,B629,B754,16.205749,1698.103,0.0
50Hertz,50Hertz,B654,B602,4.970627,1698.103,0.0
Amprion,Amprion,B454,B642,4.852965,1698.103,0.0
TenneT,TenneT,B312,B314,14.693831,1698.103,0.0
TenneT,TenneT,B312,B314,14.697378,1698.103,0.0
TransnetBW,TransnetBW,B385,B1,1.850381,983.112,0.0
Amprion,Amprion,B614,B613,0.381849,983.112,0.0
Amprion,Amprion,B478,B352,6.672592,491.556,0.0
Amprion,Amprion,B478,B352,6.672592,491.556,0.0
TenneT,TenneT,B465,B98,0.407243,1698.103,0.0
TransnetBW,TransnetBW,B386,B369,3.968143,491.556,0.0
TransnetBW,TransnetBW,B386,B369,3.968143,491.556,0.0
TransnetBW,TransnetBW,B387,B511,10.41857,3396.205,0.0
50Hertz,50Hertz,B17,B753,1.797778,1698.103,0.0
50Hertz,50Hertz,B288,B360,12.505602,491.556,0.0
50Hertz,50Hertz,B288,B764,32.13867,491.556,0.0
TenneT,TenneT,B456,B477,11.219649,1698.103,0.0
TenneT,Amprion,B456,B355,3.683073,1698.103,0.0
TenneT,Amprion,B456,B355,3.683073,1698.103,0.0
TenneT,TenneT,B456,B477,11.219649,1698.103,0.0
Amprion,TenneT,B782,B609,15.195914,1698.103,0.0
TransnetBW,TransnetBW,B18,B513,6.706012,1698.103,0.0
TransnetBW,TransnetBW,B587,B586,21.282961,491.556,0.0
Amprion,Amprion,B480,B19,2.950824,1698.103,0.0
Amprion,Amprion,B19,B65,1.177818,1698.103,0.0
Amprion,Amprion,B65,B623,0.524241,1698.103,0.0
Amprion,Amprion,B480,B19,2.950824,1698.103,0.0
Amprion,Amprion,B19,B405,1.768226,1698.103,0.0
Amprion,Amprion,B446,B20,0.489887,983.112,0.0
Amprion,TransnetBW,B640,B441,4.993943,1698.103,0.0
Amprion,Amprion,B642,B640,1.031276,1698.103,0.0
TransnetBW,Amprion,B441,B642,5.660893,1698.103,0.0
Amprion,Amprion,B304,B645,1.452259,1698.103,0.0
Amprion,Amprion,B466,B776,7.518673,491.556,0.0
Amprion,Amprion,B542,B590,3.317763,491.556,0.0
Amprion,Amprion,B590,B666,0.997613,491.556,0.0
Amprion,Amprion,B542,B666,2.341584,491.556,0.0
Amprion,TransnetBW,B336,B739,17.913898,491.556,0.0
TenneT,TenneT,B455,B705,7.731871,983.112,0.0
TenneT,TenneT,B711,B272,4.53712,491.556,0.0
50Hertz,50Hertz,B568,B406,8.192437,1698.103,0.0
50Hertz,50Hertz,B568,B406,8.192437,1698.103,0.0
50Hertz,50Hertz,B568,B306,7.705443,1698.103,0.0
50Hertz,50Hertz,B568,B306,7.705443,1698.103,0.0
50Hertz,50Hertz,B672,B288,15.732394,491.556,0.0
50Hertz,TenneT,B597,B522,28.800622,1698.103,0.0
Amprion,Amprion,B590,B666,0.993237,491.556,0.0
Amprion,Amprion,B590,B666,0.997613,491.556,0.0
Amprion,Amprion,B340,B648,12.463905,1698.103,0.0
TransnetBW,TransnetBW,B457,B409,9.298191,491.556,0.0
TenneT,TenneT,B311,B698,0.910976,491.556,0.0
Amprion,Amprion,B334,B626,1.554843,491.556,0.0
TenneT,50Hertz,B522,B607,9.159463,1698.103,0.0
50Hertz,50Hertz,B672,B288,15.732394,491.556,0.0
50Hertz,50Hertz,B360,B764,19.655697,491.556,0.0
50Hertz,50Hertz,B437,B396,20.442337,1698.103,0.0
50Hertz,50Hertz,B437,B396,20.442337,1698.103,0.0
50Hertz,50Hertz,B601,B23,3.144351,491.556,0.0
50Hertz,50Hertz,B23,B436,12.465445,491.556,0.0
Amprion,Amprion,B309,B359,3.247434,1698.103,0.0
50Hertz,50Hertz,B630,B530,16.640138,491.556,0.0
50Hertz,50Hertz,B630,B530,16.640138,491.556,0.0
Amprion,TenneT,B781,B608,18.520635,491.556,0.0
50Hertz,50Hertz,B318,B759,4.001702,1698.103,0.0
50Hertz,50Hertz,B318,B759,4.001702,1698.103,0.0
Amprion,50Hertz,B559,B771,14.316585,1698.103,0.0
Amprion,Amprion,B389,B559,10.045198,1698.103,0.0
TransnetBW,TransnetBW,B463,B382,29.729671,1698.103,0.0
TransnetBW,TransnetBW,B382,B702,8.099956,1698.103,0.0
TransnetBW,TransnetBW,B381,B598,4.150209,491.556,0.0
TransnetBW,TransnetBW,B598,B604,6.583544,491.556,0.0
TransnetBW,TransnetBW,B381,B604,8.864239,491.556,0.0
TenneT,TenneT,B719,B593,6.670278,1698.103,0.0
TenneT,50Hertz,B286,B569,21.459143,1698.103,0.0
TenneT,50Hertz,B286,B444,27.330698,1698.103,0.0
50Hertz,50Hertz,B757,B399,11.319498,1698.103,0.0
50Hertz,50Hertz,B757,B399,11.319498,1698.103,0.0
50Hertz,50Hertz,B399,B24,1.434246,1698.103,0.0
50Hertz,50Hertz,B399,B24,1.434246,1698.103,0.0
50Hertz,50Hertz,B399,B24,1.604909,1698.103,0.0
50Hertz,50Hertz,B399,B24,1.604909,1698.103,0.0
TenneT,50Hertz,B522,B761,11.592932,1698.103,0.0
50Hertz,50Hertz,B761,B629,28.757599,1698.103,0.0
50Hertz,50Hertz,B761,B754,43.970234,1698.103,0.0
TenneT,50Hertz,B522,B761,11.592932,1698.103,0.0
TenneT,TenneT,B368,B284,12.406688,1698.103,0.0
TenneT,TenneT,B368,B284,12.406688,1698.103,0.0
Amprion,Amprion,B467,B25,0.675598,491.556,0.0
TenneT,TenneT,B765,B461,3.235298,491.556,0.0
TenneT,TenneT,B765,B461,3.235298,491.556,0.0
TenneT,TenneT,B539,B448,12.818028,491.556,0.0
TenneT,TenneT,B540,B465,17.879305,1698.103,0.0
50Hertz,50Hertz,B629,B754,15.234295,1698.103,0.0
50Hertz,50Hertz,B396,B754,21.883902,1698.103,0.0
50Hertz,50Hertz,B396,B754,21.883902,1698.103,0.0
TenneT,TenneT,B766,B458,8.920339,1698.103,0.0
TenneT,TenneT,B460,B766,2.282823,1698.103,0.0
TenneT,50Hertz,B368,B770,13.827276,1698.103,0.0
TenneT,TenneT,B766,B546,21.132502,1698.103,0.0
TenneT,TenneT,B766,B546,21.132502,1698.103,0.0
TenneT,TenneT,B545,B546,6.271991,1698.103,0.0
Amprion,Amprion,B389,B393,3.616813,3396.205,0.0
Amprion,Amprion,B642,B367,21.950565,1698.103,0.0
Amprion,Amprion,B559,B367,12.465115,1698.103,0.0
TransnetBW,TenneT,B335,B285,22.64475,1698.103,0.0
TransnetBW,TransnetBW,B329,B638,13.600831,1698.103,0.0
TransnetBW,TenneT,B589,B285,13.31795,1698.103,0.0
TransnetBW,TransnetBW,B653,B26,0.645289,3396.205,0.0
TransnetBW,TransnetBW,B26,B27,0.128493,3396.205,0.0
TransnetBW,TransnetBW,B27,B322,2.895704,3396.205,0.0
50Hertz,50Hertz,B654,B602,4.970627,1698.103,0.0
50Hertz,50Hertz,B602,B396,20.626569,1698.103,0.0
50Hertz,50Hertz,B770,B654,25.674137,1698.103,0.0
TransnetBW,TransnetBW,B706,B410,6.201309,3396.205,0.0
TransnetBW,TransnetBW,B576,B677,8.62386,1698.103,0.0
TransnetBW,TransnetBW,B576,B706,12.817754,1698.103,0.0
TransnetBW,TransnetBW,B706,B677,7.756407,1698.103,0.0
50Hertz,50Hertz,B408,B436,9.087672,491.556,0.0
50Hertz,50Hertz,B757,B685,13.936734,1698.103,0.0
50Hertz,50Hertz,B437,B760,21.02396,1698.103,0.0
50Hertz,50Hertz,B290,B760,11.756918,1698.103,0.0
50Hertz,50Hertz,B437,B290,9.273924,1698.103,0.0
TenneT,TenneT,B482,B328,12.317023,3396.205,0.0
TenneT,TenneT,B483,B284,13.787965,1698.103,0.0
TenneT,TenneT,B285,B486,8.750769,1698.103,0.0
TenneT,TenneT,B285,B485,12.232749,1698.103,0.0
TenneT,TenneT,B486,B483,14.284947,1698.103,0.0
TenneT,TenneT,B485,B483,10.689185,1698.103,0.0
TenneT,TenneT,B483,B30,9.13072,1698.103,0.0
TenneT,TenneT,B30,B747,3.248189,1698.103,0.0
TenneT,TenneT,B747,B558,21.687613,1698.103,0.0
TenneT,TenneT,B709,B499,7.770766,3396.205,0.0
50Hertz,50Hertz,B757,B685,13.936734,1698.103,0.0
50Hertz,50Hertz,B760,B757,8.997332,1698.103,0.0
50Hertz,50Hertz,B439,B601,8.343735,491.556,0.0
50Hertz,50Hertz,B395,B601,47.720976,491.556,0.0
50Hertz,50Hertz,B395,B601,47.720976,491.556,0.0
TenneT,TenneT,B368,B509,1.993687,1698.103,0.0
50Hertz,50Hertz,B752,B31,3.951702,167.576,0.0
50Hertz,50Hertz,B436,B282,5.363841,491.556,0.0
50Hertz,TenneT,B390,B404,9.698605,491.556,0.0
50Hertz,50Hertz,B769,B395,19.910464,491.556,0.0
50Hertz,50Hertz,B769,B395,19.910464,491.556,0.0
50Hertz,50Hertz,B770,B566,19.138987,1698.103,0.0
50Hertz,50Hertz,B770,B566,19.138987,1698.103,0.0
50Hertz,50Hertz,B574,B580,0.80549,3396.205,0.0
50Hertz,50Hertz,B580,B318,0.449781,5094.308,0.0
50Hertz,50Hertz,B572,B651,0.925334,3396.205,0.0
TenneT,TenneT,B708,B487,6.874136,983.112,0.0
TenneT,TenneT,B326,B487,11.032925,983.112,0.0
TenneT,TenneT,B326,B553,18.898288,491.556,0.0
TenneT,TenneT,B489,B487,7.315706,491.556,0.0
TenneT,TenneT,B325,B455,9.818328,491.556,0.0
TenneT,TenneT,B327,B325,12.032908,491.556,0.0
TenneT,TenneT,B328,B516,18.73981,1698.103,0.0
TransnetBW,TenneT,B678,B516,4.431016,1698.103,0.0
TransnetBW,TenneT,B678,B516,4.431016,1698.103,0.0
TenneT,TenneT,B516,B709,5.024834,5094.308,0.0
TransnetBW,TransnetBW,B462,B587,11.071185,983.112,0.0
Amprion,Amprion,B495,B466,0.526627,491.556,0.0
TransnetBW,TransnetBW,B410,B453,4.184504,1698.103,0.0
TransnetBW,TransnetBW,B736,B415,1.694692,1698.103,0.0
TransnetBW,TransnetBW,B736,B415,1.694692,1698.103,0.0
Amprion,Amprion,B738,B374,3.092542,983.112,0.0
TenneT,TenneT,B483,B284,13.787965,1698.103,0.0
TenneT,TenneT,B553,B561,10.770379,491.556,0.0
Amprion,Amprion,B297,B649,1.067322,491.556,0.0
TransnetBW,TransnetBW,B598,B599,0.77646,491.556,0.0
TenneT,TenneT,B477,B413,1.319045,1698.103,0.0
TransnetBW,TransnetBW,B618,B665,3.240934,1698.103,0.0
TenneT,TenneT,B450,B272,8.014868,491.556,0.0
TenneT,TenneT,B332,B32,1.744418,491.556,0.0
TenneT,TenneT,B332,B481,27.4341,491.556,0.0
Amprion,TransnetBW,B642,B681,7.348377,1698.103,0.0
Amprion,TenneT,B642,B333,27.897856,1698.103,0.0
TransnetBW,TenneT,B681,B333,20.695166,1698.103,0.0
TenneT,TenneT,B333,B285,0.721993,1698.103,0.0
TenneT,TenneT,B333,B285,0.721926,1698.103,0.0
Amprion,Amprion,B355,B512,7.869779,1698.103,0.0
TenneT,TenneT,B547,B438,3.300959,491.556,0.0
TenneT,TenneT,B549,B483,19.921309,1698.103,0.0
TenneT,TenneT,B285,B482,21.690501,1698.103,0.0
TenneT,TenneT,B285,B482,21.690501,1698.103,0.0
TenneT,TenneT,B482,B484,19.975375,1698.103,0.0
TenneT,TenneT,B482,B549,6.708595,1698.103,0.0
TenneT,TenneT,B458,B523,6.433392,1698.103,0.0
TenneT,TenneT,B33,B523,1.333283,1698.103,0.0
TenneT,TenneT,B523,B522,11.892634,1698.103,0.0
Amprion,Amprion,B359,B454,12.453826,1698.103,0.0
Amprion,Amprion,B454,B642,4.852965,1698.103,0.0
TenneT,50Hertz,B675,B611,6.242662,3396.205,0.0
50Hertz,50Hertz,B754,B755,10.676523,1698.103,0.0
50Hertz,50Hertz,B754,B755,10.676523,1698.103,0.0
50Hertz,50Hertz,B396,B399,23.106846,1698.103,0.0
50Hertz,50Hertz,B396,B399,23.106846,1698.103,0.0
50Hertz,50Hertz,B277,B755,12.448808,1698.103,0.0
50Hertz,50Hertz,B396,B755,29.894122,1698.103,0.0
Amprion,TenneT,B354,B547,10.329387,491.556,0.0
TenneT,Amprion,B547,B34,9.99829,491.556,0.0
50Hertz,50Hertz,B610,B538,7.463135,491.556,0.0
50Hertz,50Hertz,B538,B529,5.83338,491.556,0.0
TenneT,TenneT,B577,B688,5.551734,491.556,0.0
TransnetBW,TransnetBW,B43,B736,1.642736,1698.103,0.0
TransnetBW,TransnetBW,B275,B586,3.709006,491.556,0.0
TransnetBW,TransnetBW,B587,B275,23.560387,491.556,0.0
Amprion,Amprion,B35,B36,1.958183,491.556,0.0
TenneT,50Hertz,B543,B321,14.658586,491.556,0.0
TenneT,TenneT,B481,B326,5.771994,983.112,0.0
TenneT,TenneT,B606,B272,4.517495,491.556,0.0
TenneT,TenneT,B562,B39,11.685114,173.162,0.0
TransnetBW,TransnetBW,B385,B1,1.850381,983.112,0.0
TransnetBW,TransnetBW,B331,B335,11.173372,1698.103,0.0
Amprion,Amprion,B339,B355,6.526872,1698.103,0.0
TenneT,TenneT,B544,B373,0.350083,983.112,0.0
TenneT,TenneT,B361,B40,1.999982,1698.103,0.0
TenneT,TenneT,B40,B475,1.705757,1698.103,0.0
50Hertz,50Hertz,B436,B282,5.363841,491.556,0.0
50Hertz,50Hertz,B408,B436,9.087672,491.556,0.0
TransnetBW,TransnetBW,B463,B382,29.729671,1698.103,0.0
TenneT,TenneT,B458,B523,6.433392,1698.103,0.0
TransnetBW,TenneT,B409,B455,11.86523,491.556,0.0
TenneT,TenneT,B445,B286,7.00054,1698.103,0.0
TransnetBW,TransnetBW,B382,B702,8.099956,1698.103,0.0
TransnetBW,TransnetBW,B410,B453,4.184504,1698.103,0.0
TenneT,50Hertz,B543,B321,14.658586,491.556,0.0
TenneT,TenneT,B578,B315,1.366643,1698.103,0.0
TenneT,TenneT,B368,B483,13.943248,1698.103,0.0
TenneT,TenneT,B786,B41,6.049846,1698.103,0.0
TenneT,TenneT,B41,B42,0.9474,1698.103,0.0
TenneT,TenneT,B42,B476,6.212275,1698.103,0.0
TenneT,TenneT,B786,B41,6.049846,1698.103,0.0
TenneT,TenneT,B41,B42,0.9474,1698.103,0.0
TenneT,TenneT,B42,B476,6.212275,1698.103,0.0
50Hertz,50Hertz,B770,B654,25.674137,1698.103,0.0
50Hertz,50Hertz,B755,B56,1.691191,1698.103,0.0
50Hertz,50Hertz,B755,B56,1.644453,1698.103,0.0
50Hertz,50Hertz,B755,B56,1.61988,1698.103,0.0
50Hertz,50Hertz,B755,B56,1.644453,1698.103,0.0
50Hertz,50Hertz,B755,B56,1.61988,1698.103,0.0
50Hertz,50Hertz,B755,B56,1.691191,1698.103,0.0
TransnetBW,TransnetBW,B734,B736,2.388697,1698.103,0.0
TransnetBW,TransnetBW,B734,B43,0.730829,1698.103,0.0
TransnetBW,TransnetBW,B43,B736,1.646166,1698.103,0.0
TenneT,TenneT,B484,B483,5.286823,1698.103,0.0
TenneT,TenneT,B545,B286,6.91398,1698.103,0.0
TenneT,TenneT,B539,B448,12.818028,491.556,0.0
TenneT,TenneT,B540,B465,17.879305,1698.103,0.0
TenneT,TenneT,B545,B286,6.91398,1698.103,0.0
TenneT,TenneT,B315,B675,2.405408,1698.103,0.0
TenneT,TenneT,B315,B675,2.405408,1698.103,0.0
TransnetBW,TenneT,B409,B455,11.86523,491.556,0.0
TenneT,TenneT,B481,B489,13.983685,983.112,0.0
TenneT,TenneT,B766,B458,8.920339,1698.103,0.0
TenneT,50Hertz,B368,B770,13.827276,1698.103,0.0
50Hertz,50Hertz,B760,B757,8.997332,1698.103,0.0
TenneT,TenneT,B547,B438,3.300959,491.556,0.0
50Hertz,50Hertz,B671,B658,12.817368,1698.103,0.0
TenneT,TenneT,B314,B732,1.46662,1698.103,0.0
50Hertz,50Hertz,B566,B763,12.57646,1698.103,0.0
50Hertz,50Hertz,B550,B754,13.299552,1698.103,0.0
50Hertz,TenneT,B597,B522,28.800622,1698.103,0.0
50Hertz,50Hertz,B597,B566,9.601102,1698.103,0.0
50Hertz,50Hertz,B597,B566,9.601102,1698.103,0.0
50Hertz,50Hertz,B566,B629,25.171234,1698.103,0.0
50Hertz,50Hertz,B756,B658,13.692023,1698.103,0.0
50Hertz,50Hertz,B573,B399,5.386586,1698.103,0.0
50Hertz,50Hertz,B573,B399,5.386586,1698.103,0.0
50Hertz,50Hertz,B755,B573,15.27845,1698.103,0.0
50Hertz,50Hertz,B755,B573,15.27845,1698.103,0.0
TenneT,TenneT,B449,B397,0.617622,491.556,0.0
50Hertz,50Hertz,B529,B45,3.554479,491.556,0.0
50Hertz,50Hertz,B610,B529,9.57484,491.556,0.0
TenneT,TenneT,B692,B609,18.25799,1698.103,0.0
TenneT,Amprion,B692,B782,14.823795,1698.103,0.0
TenneT,TenneT,B772,B773,0.384225,3396.205,0.0
TenneT,TenneT,B449,B696,0.719441,983.112,0.0
TransnetBW,TransnetBW,B735,B414,0.217516,1966.224,0.0
TransnetBW,TransnetBW,B736,B162,0.42633,3396.205,0.0
Amprion,Amprion,B50,B52,0.375079,491.556,0.0
Amprion,Amprion,B51,B53,0.306533,1698.103,0.0
Amprion,Amprion,B138,B50,0.345273,983.112,0.0
Amprion,Amprion,B139,B51,0.287084,3396.205,0.0
Amprion,Amprion,B52,B474,0.476864,983.112,0.0
Amprion,Amprion,B53,B262,0.390776,3396.205,0.0
Amprion,Amprion,B472,B48,1.106446,491.556,0.0
Amprion,Amprion,B473,B49,0.9011,1698.103,0.0
TransnetBW,TransnetBW,B520,B635,2.998758,3396.205,0.0
TransnetBW,TransnetBW,B635,B54,1.860836,3396.205,0.0
TransnetBW,TransnetBW,B723,B54,0.18257,3396.205,0.0
TransnetBW,TransnetBW,B54,B270,1.10497,1698.103,0.0
TransnetBW,TransnetBW,B54,B723,0.375696,1698.103,0.0
Amprion,Amprion,B2,B304,0.751692,1698.103,0.0
TransnetBW,TransnetBW,B57,B287,0.306082,3396.205,0.0
TransnetBW,TransnetBW,B58,B431,0.268757,3396.205,0.0
TransnetBW,TransnetBW,B221,B58,1.784983,1698.103,0.0
Amprion,Amprion,B508,B175,0.565945,3396.205,0.0
Amprion,Amprion,B434,B61,1.09207,491.556,0.0
Amprion,Amprion,B435,B62,0.892702,1698.103,0.0
Amprion,Amprion,B494,B60,1.323758,3396.205,0.0
Amprion,Amprion,B65,B447,0.309868,5094.308,0.0
TenneT,TenneT,B134,B785,4.425469,983.112,0.0
Amprion,Amprion,B694,B184,0.187844,1966.224,0.0
Amprion,Amprion,B781,B67,0.148232,1474.668,0.0
TenneT,TenneT,B69,B767,1.771019,3396.205,0.0
TenneT,TenneT,B742,B261,3.625122,983.112,0.0
Amprion,Amprion,B350,B128,0.207497,1966.224,0.0
Amprion,Amprion,B146,B338,1.691508,3396.205,0.0
TenneT,TenneT,B42,B41,0.327564,3396.205,0.0
50Hertz,50Hertz,B657,B256,23.671681,491.556,0.0
Amprion,Amprion,B304,B214,1.056053,1698.103,0.0
50Hertz,50Hertz,B758,B192,0.795772,491.556,0.0
Amprion,Amprion,B212,B776,0.242556,983.112,0.0
TenneT,TenneT,B71,B747,0.722567,3396.205,0.0
TenneT,TenneT,B558,B73,4.273275,3396.205,0.0
50Hertz,TenneT,B201,B284,6.368887,3396.205,0.0
Amprion,Amprion,B412,B617,1.885337,3396.205,0.0
Amprion,Amprion,B263,B376,1.594423,983.112,0.0
Amprion,Amprion,B265,B74,1.304335,3396.205,0.0
TenneT,TenneT,B570,B606,7.274628,983.112,0.0
TenneT,TenneT,B75,B243,0.856104,491.556,0.0
TenneT,TenneT,B243,B75,0.857678,491.556,0.0
Amprion,Amprion,B86,B478,1.449744,983.112,0.0
TenneT,TenneT,B73,B76,0.697294,1698.103,0.0
TenneT,TenneT,B131,B77,0.636242,1698.103,0.0
TenneT,TenneT,B77,B131,0.65605,1698.103,0.0
TenneT,TenneT,B319,B80,1.248344,3396.205,0.0
Amprion,Amprion,B194,B81,0.414351,3396.205,0.0
TransnetBW,TransnetBW,B377,B388,1.791149,983.112,0.0
TenneT,TenneT,B324,B790,0.266582,983.112,0.0
TenneT,TransnetBW,B481,B268,33.491436,491.556,0.0
50Hertz,50Hertz,B83,B770,2.075781,3396.205,0.0
50Hertz,50Hertz,B84,B83,1.140182,3396.205,0.0
50Hertz,50Hertz,B85,B84,1.30442,3396.205,0.0
TransnetBW,TransnetBW,B293,B322,1.654269,1698.103,0.0
TransnetBW,TransnetBW,B87,B527,2.383425,1698.103,0.0
TransnetBW,TransnetBW,B400,B89,1.92503,491.556,0.0
TransnetBW,TransnetBW,B392,B90,1.205538,491.556,0.0
TransnetBW,TransnetBW,B417,B392,0.486505,983.112,0.0
TenneT,Amprion,B91,B407,0.403838,983.112,0.0
TenneT,TenneT,B93,B747,8.167254,1698.103,0.0
TransnetBW,TransnetBW,B94,B269,1.141216,1698.103,0.0
Amprion,Amprion,B95,B670,1.534505,3396.205,0.0
50Hertz,50Hertz,B201,B366,0.886609,1698.103,0.0
TenneT,TenneT,B465,B646,3.555592,3396.205,0.0
Amprion,Amprion,B375,B97,1.292632,1698.103,0.0
TenneT,TenneT,B98,B452,6.504534,3396.205,0.0
TenneT,TenneT,B465,B98,0.235402,3396.205,0.0
Amprion,Amprion,B101,B639,1.43555,3396.205,0.0
Amprion,Amprion,B346,B164,0.437254,983.112,0.0
Amprion,Amprion,B102,B103,0.370694,983.112,0.0
TransnetBW,TransnetBW,B104,B386,0.41382,1966.224,0.0
TransnetBW,TransnetBW,B104,B369,1.157646,983.112,0.0
TransnetBW,TransnetBW,B402,B107,1.96479,491.556,0.0
TransnetBW,TransnetBW,B202,B108,4.122236,983.112,0.0
Amprion,Amprion,B310,B109,1.124818,1698.103,0.0
50Hertz,50Hertz,B755,B110,4.749554,3396.205,0.0
50Hertz,50Hertz,B110,B676,0.930352,3396.205,0.0
50Hertz,50Hertz,B228,B403,2.133064,3396.205,0.0
50Hertz,50Hertz,B228,B762,0.563068,3396.205,0.0
50Hertz,50Hertz,B704,B654,0.428641,3396.205,0.0
Amprion,Amprion,B111,B174,1.204187,983.112,0.0
Amprion,Amprion,B666,B347,0.85242,983.112,0.0
TenneT,TenneT,B540,B143,0.740124,5094.308,0.0
50Hertz,50Hertz,B305,B628,9.202362,983.112,0.0
TransnetBW,TransnetBW,B246,B364,0.75404,3396.205,0.0
Amprion,Amprion,B113,B446,0.661855,983.112,0.0
50Hertz,50Hertz,B110,B636,5.581337,3396.205,0.0
TransnetBW,TransnetBW,B114,B115,2.645962,3396.205,0.0
TenneT,TenneT,B675,B182,0.314141,6792.41,0.0
TransnetBW,TransnetBW,B652,B510,3.833479,491.556,0.0
TransnetBW,TransnetBW,B118,B510,2.040611,983.112,0.0
Amprion,Amprion,B670,B112,3.395077,3396.205,0.0
Amprion,Amprion,B664,B451,1.29184,1474.668,0.0
TenneT,Amprion,B656,B393,1.413162,3396.205,0.0
TransnetBW,TransnetBW,B1,B106,0.549051,983.112,0.0
TenneT,TenneT,B708,B261,8.989467,983.112,0.0
Amprion,Amprion,B123,B643,1.719004,1698.103,0.0
TenneT,TenneT,B127,B283,2.357813,983.112,0.0
Amprion,Amprion,B296,B128,0.8033,491.556,0.0
TenneT,TenneT,B567,B177,1.24737,983.112,0.0
TenneT,TenneT,B765,B567,1.016141,983.112,0.0
TenneT,TenneT,B785,B551,5.108888,983.112,0.0
TenneT,TenneT,B177,B544,0.203356,983.112,0.0
TenneT,TenneT,B606,B173,6.121615,491.556,0.0
TenneT,TenneT,B134,B430,1.424123,983.112,0.0
TenneT,TenneT,B544,B324,0.288296,983.112,0.0
Amprion,Amprion,B398,B135,1.685304,1698.103,0.0
Amprion,Amprion,B667,B136,1.225776,3396.205,0.0
Amprion,Amprion,B469,B138,0.2601,983.112,0.0
Amprion,Amprion,B470,B138,0.734494,983.112,0.0
Amprion,Amprion,B140,B743,0.178156,1474.668,0.0
Amprion,Amprion,B141,B142,0.142236,5094.308,0.0
50Hertz,50Hertz,B532,B178,2.621455,3396.205,0.0
Amprion,Amprion,B787,B266,2.846163,491.556,0.0
TenneT,TenneT,B477,B143,2.062882,3396.205,0.0
TenneT,TenneT,B547,B144,4.503884,983.112,0.0
TransnetBW,Amprion,B246,B480,2.380383,3396.205,0.0
Amprion,Amprion,B493,B59,0.438616,983.112,0.0
Amprion,Amprion,B494,B411,0.358422,3396.205,0.0
Amprion,Amprion,B644,B146,1.798857,3396.205,0.0
Amprion,Amprion,B502,B150,0.367614,983.112,0.0
Amprion,Amprion,B433,B557,0.536044,6792.41,0.0
Amprion,Amprion,B428,B153,1.604678,1698.103,0.0
50Hertz,50Hertz,B233,B155,0.57604,983.112,0.0
50Hertz,50Hertz,B158,B159,10.742348,983.112,0.0
50Hertz,50Hertz,B179,B686,0.518853,1698.103,0.0
TransnetBW,TransnetBW,B381,B160,1.163615,491.556,0.0
TenneT,TenneT,B521,B449,0.873756,983.112,0.0
Amprion,Amprion,B146,B644,1.798227,3396.205,0.0
TransnetBW,TransnetBW,B21,B631,0.85729,983.112,0.0
TenneT,TenneT,B144,B552,1.564657,983.112,0.0
TransnetBW,TransnetBW,B683,B707,7.49867,1698.103,0.0
TenneT,TenneT,B778,B143,1.939078,1698.103,0.0
TenneT,TenneT,B279,B476,4.001084,3396.205,0.0
Amprion,Amprion,B274,B375,4.220372,3396.205,0.0
TransnetBW,TransnetBW,B169,B114,0.27014,1698.103,0.0
Amprion,Amprion,B585,B584,0.421341,3396.205,0.0
Amprion,Amprion,B236,B55,0.363,983.112,0.0
Amprion,Amprion,B266,B442,0.719316,983.112,0.0
Amprion,Amprion,B174,B323,1.099585,983.112,0.0
TransnetBW,TransnetBW,B225,B679,2.579283,983.112,0.0
TenneT,TenneT,B177,B544,0.401393,491.556,0.0
50Hertz,50Hertz,B130,B750,0.47501,3396.205,0.0
TenneT,TenneT,B295,B714,1.631059,3396.205,0.0
50Hertz,50Hertz,B178,B179,1.112001,3396.205,0.0
TransnetBW,TransnetBW,B520,B170,4.235531,3396.205,0.0
TransnetBW,TransnetBW,B457,B180,7.517928,983.112,0.0
TransnetBW,TransnetBW,B635,B581,5.024147,3396.205,0.0
TransnetBW,TransnetBW,B133,B579,0.652955,1698.103,0.0
TenneT,TenneT,B730,B697,1.264757,3396.205,0.0
TenneT,TenneT,B731,B730,0.417733,1698.103,0.0
TenneT,TenneT,B591,B316,1.615512,3396.205,0.0
TenneT,TenneT,B733,B732,0.819906,1698.103,0.0
TenneT,TenneT,B181,B476,0.192743,3396.205,0.0
TenneT,TenneT,B727,B182,0.379925,3396.205,0.0
Amprion,Amprion,B389,B183,2.286746,3396.205,0.0
Amprion,Amprion,B184,B185,2.797133,983.112,0.0
50Hertz,50Hertz,B186,B233,0.860953,491.556,0.0
50Hertz,50Hertz,B187,B130,0.705621,1698.103,0.0
TenneT,Amprion,B144,B354,0.233138,983.112,0.0
Amprion,Amprion,B434,B188,0.577904,1966.224,0.0
TenneT,TenneT,B603,B615,0.714437,3396.205,0.0
TenneT,TenneT,B475,B772,0.615004,3396.205,0.0
TransnetBW,TransnetBW,B381,B600,0.424557,983.112,0.0
TenneT,TenneT,B189,B181,0.164844,6792.41,0.0
Amprion,Amprion,B309,B190,0.376791,1698.103,0.0
Amprion,Amprion,B109,B190,2.273054,3396.205,0.0
Amprion,Amprion,B191,B427,1.286221,983.112,0.0
Amprion,Amprion,B129,B428,1.048077,3396.205,0.0
50Hertz,50Hertz,B192,B193,2.264303,983.112,0.0
TransnetBW,TransnetBW,B90,B120,0.911818,983.112,0.0
Amprion,Amprion,B196,B627,4.334663,3396.205,0.0
50Hertz,50Hertz,B161,B572,3.056757,3396.205,0.0
Amprion,Amprion,B401,B199,2.031411,1698.103,0.0
Amprion,Amprion,B232,B728,3.153458,3396.205,0.0
Amprion,Amprion,B151,B622,0.690509,491.556,0.0
Amprion,Amprion,B100,B99,0.284984,1698.103,0.0
Amprion,Amprion,B196,B526,0.921006,3396.205,0.0
50Hertz,50Hertz,B770,B201,3.180706,3396.205,0.0
TransnetBW,TransnetBW,B203,B204,0.378594,1698.103,0.0
TransnetBW,TransnetBW,B203,B204,0.377772,1698.103,0.0
50Hertz,50Hertz,B759,B5,0.483662,3396.205,0.0
50Hertz,50Hertz,B178,B607,7.870167,3396.205,0.0
Amprion,Amprion,B344,B205,0.654166,6792.41,0.0
Amprion,Amprion,B783,B207,0.394284,983.112,0.0
Amprion,Amprion,B784,B194,0.325014,3396.205,0.0
Amprion,Amprion,B81,B494,0.550874,3396.205,0.0
Amprion,Amprion,B207,B542,2.333373,491.556,0.0
Amprion,Amprion,B428,B196,3.328175,3396.205,0.0
TransnetBW,TransnetBW,B208,B431,1.530211,1698.103,0.0
TransnetBW,TransnetBW,B180,B209,1.140727,491.556,0.0
TransnetBW,TransnetBW,B209,B700,2.752472,983.112,0.0
TransnetBW,TransnetBW,B364,B308,1.766537,5094.308,0.0
TransnetBW,TransnetBW,B616,B210,0.327419,1698.103,0.0
Amprion,Amprion,B135,B214,1.425208,3396.205,0.0
Amprion,Amprion,B472,B614,0.635066,1474.668,0.0
Amprion,Amprion,B217,B216,0.644783,1698.103,0.0
Amprion,Amprion,B320,B433,0.440025,3396.205,0.0
50Hertz,50Hertz,B651,B303,0.300906,3396.205,0.0
TransnetBW,TransnetBW,B203,B219,0.307527,3396.205,0.0
TransnetBW,TransnetBW,B219,B220,3.629377,3396.205,0.0
TransnetBW,TransnetBW,B115,B208,0.248508,3396.205,0.0
TransnetBW,TransnetBW,B624,B202,0.229886,983.112,0.0
TransnetBW,TransnetBW,B26,B27,0.25786,1698.103,0.0
TenneT,TenneT,B294,B223,3.281988,3396.205,0.0
TenneT,TenneT,B733,B731,1.010992,3396.205,0.0
Amprion,Amprion,B514,B255,0.4401,3396.205,0.0
Amprion,Amprion,B60,B667,0.960262,3396.205,0.0
50Hertz,50Hertz,B671,B768,2.07293,3396.205,0.0
Amprion,Amprion,B128,B423,0.162489,1966.224,0.0
50Hertz,50Hertz,B636,B759,5.125724,3396.205,0.0
TransnetBW,TransnetBW,B308,B370,0.779389,5094.308,0.0
50Hertz,50Hertz,B437,B228,3.220654,3396.205,0.0
50Hertz,50Hertz,B661,B303,0.311432,3396.205,0.0
50Hertz,50Hertz,B661,B574,1.26737,1698.103,0.0
Amprion,Amprion,B493,B145,1.665508,983.112,0.0
Amprion,Amprion,B467,B229,0.67588,983.112,0.0
Amprion,Amprion,B557,B230,9.844632,1698.103,0.0
Amprion,Amprion,B302,B232,0.517093,3396.205,0.0
50Hertz,50Hertz,B673,B187,5.820853,3396.205,0.0
TenneT,TenneT,B591,B295,0.646208,3396.205,0.0
TenneT,TenneT,B543,B224,5.964487,983.112,0.0
Amprion,Amprion,B237,B394,0.500837,491.556,0.0
Amprion,Amprion,B239,B240,2.000085,491.556,0.0
Amprion,Amprion,B612,B241,1.634914,1698.103,0.0
Amprion,Amprion,B152,B464,0.199169,3396.205,0.0
TransnetBW,TransnetBW,B392,B417,0.471,983.112,0.0
50Hertz,50Hertz,B242,B6,1.51305,3396.205,0.0
TenneT,TenneT,B498,B243,6.546777,983.112,0.0
TransnetBW,TransnetBW,B638,B621,2.499034,3396.205,0.0
Amprion,Amprion,B64,B245,0.132629,5094.308,0.0
Amprion,Amprion,B166,B96,1.947514,1474.668,0.0
Amprion,Amprion,B746,B490,1.279832,983.112,0.0
Amprion,Amprion,B491,B248,0.244344,6792.41,0.0
50Hertz,50Hertz,B768,B673,9.466212,3396.205,0.0
50Hertz,50Hertz,B575,B165,0.386833,983.112,0.0
Amprion,Amprion,B142,B149,0.926329,3396.205,0.0
TenneT,TenneT,B283,B127,2.36929,983.112,0.0
TenneT,TenneT,B380,B127,2.594837,491.556,0.0
Amprion,Amprion,B497,B687,0.694436,3396.205,0.0
Amprion,Amprion,B617,B199,5.097985,3396.205,0.0
Amprion,Amprion,B249,B250,3.219006,1698.103,0.0
Amprion,Amprion,B250,B215,0.405836,3396.205,0.0
Amprion,Amprion,B720,B251,1.198261,3396.205,0.0
Amprion,Amprion,B715,B720,0.770228,1698.103,0.0
Amprion,Amprion,B715,B720,0.77462,1698.103,0.0
Amprion,Amprion,B715,B720,0.772728,1698.103,0.0
Amprion,Amprion,B715,B720,0.776519,1698.103,0.0
Amprion,Amprion,B584,B715,0.691889,3396.205,0.0
Amprion,Amprion,B585,B252,1.633596,3396.205,0.0
TenneT,TenneT,B578,B422,7.052144,3396.205,0.0
Amprion,Amprion,B728,B345,1.157549,3396.205,0.0
TenneT,TenneT,B181,B476,0.193334,3396.205,0.0
TenneT,TenneT,B189,B729,0.59692,6792.41,0.0
TenneT,TenneT,B731,B730,0.417233,1698.103,0.0
TransnetBW,TransnetBW,B737,B706,4.864601,3396.205,0.0
TenneT,TenneT,B733,B732,0.823795,1698.103,0.0
Amprion,Amprion,B236,B712,0.252346,983.112,0.0
50Hertz,50Hertz,B256,B257,5.49142,491.556,0.0
50Hertz,50Hertz,B721,B532,0.176453,3396.205,0.0
TenneT,50Hertz,B655,B260,1.137296,3396.205,0.0
Amprion,Amprion,B471,B252,0.831172,1698.103,0.0
TenneT,TenneT,B261,B82,0.802684,1966.224,0.0
TenneT,TenneT,B82,B75,0.383202,1966.224,0.0
Amprion,Amprion,B263,B264,0.524426,983.112,0.0
Amprion,Amprion,B264,B336,0.59157,983.112,0.0
Amprion,Amprion,B267,B745,0.234509,983.112,0.0
Amprion,Amprion,B140,B267,0.198815,983.112,0.0
TransnetBW,TransnetBW,B419,B679,0.860669,983.112,0.0
TransnetBW,TransnetBW,B268,B488,0.318944,1474.668,0.0
TenneT,TenneT,B779,B780,3.143504,1698.103,0.0
TenneT,TenneT,B779,B780,3.141373,1698.103,0.0
TransnetBW,TransnetBW,B270,B287,2.416692,3396.205,0.0
50Hertz,50Hertz,B271,B158,2.300278,491.556,0.0
Amprion,Amprion,B183,B344,2.867313,3396.205,0.0
50Hertz,50Hertz,B130,B242,0.312882,1698.103,0.0
TransnetBW,TransnetBW,B79,B21,2.48521,1699.0,0.0
TransnetBW,TransnetBW,B94,B22,2.48521,3397.0,0.0
Amprion,Amprion,B139,B138,2.48521,3397.0,0.0
Amprion,Amprion,B49,B48,2.48521,3397.0,0.0
Amprion,Amprion,B51,B50,2.48521,3397.0,0.0
Amprion,Amprion,B53,B52,2.48521,3397.0,0.0
Amprion,Amprion,B2,B55,2.48521,10189.0,0.0
Amprion,Amprion,B62,B61,2.48521,3397.0,0.0
50Hertz,50Hertz,B130,B233,2.48521,5095.0,0.0
Amprion,Amprion,B123,B122,2.48521,3397.0,0.0
Amprion,Amprion,B125,B124,2.48521,3397.0,0.0
Amprion,Amprion,B141,B140,2.48521,3397.0,0.0
Amprion,Amprion,B157,B156,2.48521,3397.0,0.0
50Hertz,50Hertz,B179,B159,2.48521,3397.0,0.0
Amprion,Amprion,B11,B185,2.48521,6793.0,0.0
50Hertz,50Hertz,B187,B186,2.48521,3397.0,0.0
Amprion,Amprion,B129,B191,2.48521,5095.0,0.0
50Hertz,50Hertz,B5,B192,2.48521,8491.0,0.0
Amprion,Amprion,B194,B207,2.48521,5095.0,0.0
Amprion,Amprion,B199,B96,2.48521,5095.0,0.0
Amprion,Amprion,B214,B213,2.48521,3397.0,0.0
Amprion,Amprion,B148,B147,2.48521,5095.0,0.0
Amprion,Amprion,B232,B231,2.48521,3397.0,0.0
50Hertz,50Hertz,B242,B193,2.48521,3397.0,0.0
Amprion,Amprion,B241,B240,2.48521,3397.0,0.0
Amprion,Amprion,B252,B258,2.48521,6793.0,0.0
50Hertz,50Hertz,B259,B260,2.48521,1788.0,0.0
Amprion,Amprion,B265,B263,2.48521,3397.0,0.0
TenneT,TenneT,B273,B272,2.48521,3397.0,0.0
Amprion,Amprion,B281,B280,2.48521,5095.0,0.0
TenneT,TenneT,B284,B283,2.48521,11887.0,0.0
50Hertz,50Hertz,B289,B288,2.48521,8491.0,0.0
50Hertz,50Hertz,B292,B291,2.48521,1699.0,0.0
Amprion,Amprion,B302,B301,2.48521,5095.0,0.0
Amprion,Amprion,B304,B229,2.48521,5095.0,0.0
50Hertz,50Hertz,B306,B305,2.48521,3397.0,0.0
TransnetBW,TransnetBW,B308,B307,2.48521,3397.0,0.0
TenneT,TenneT,B311,B172,2.48521,492.0,0.0
TenneT,TenneT,B312,B172,2.48521,3397.0,0.0
TenneT,TenneT,B312,B311,2.48521,3397.0,0.0
TenneT,TenneT,B314,B313,2.48521,10189.0,0.0
50Hertz,50Hertz,B318,B317,2.48521,5095.0,0.0
Amprion,Amprion,B320,B151,2.48521,3397.0,0.0
TransnetBW,TransnetBW,B322,B37,2.48521,6793.0,0.0
TenneT,TenneT,B80,B324,2.48521,1699.0,0.0
TenneT,TenneT,B328,B327,2.48521,3397.0,0.0
TransnetBW,TransnetBW,B331,B330,2.48521,5095.0,0.0
TenneT,TenneT,B333,B332,2.48521,10189.0,0.0
Amprion,Amprion,B355,B354,2.48521,8491.0,0.0
Amprion,Amprion,B358,B357,2.48521,3397.0,0.0
TransnetBW,TransnetBW,B18,B363,2.48521,3397.0,0.0
TransnetBW,TransnetBW,B370,B369,2.48521,8491.0,0.0
Amprion,Amprion,B375,B374,2.48521,3397.0,0.0
Amprion,Amprion,B74,B376,2.48521,3397.0,0.0
TransnetBW,TransnetBW,B378,B377,2.48521,3397.0,0.0
TransnetBW,TransnetBW,B382,B381,2.48521,6793.0,0.0
Amprion,Amprion,B384,B383,2.48521,8491.0,0.0
TransnetBW,TransnetBW,B200,B385,2.48521,3397.0,0.0
TransnetBW,TransnetBW,B387,B106,2.48521,5095.0,0.0
50Hertz,50Hertz,B391,B390,2.48521,3397.0,0.0
Amprion,Amprion,B405,B113,2.48521,3397.0,0.0
50Hertz,50Hertz,B9,B406,2.48521,6793.0,0.0
TransnetBW,TransnetBW,B410,B409,2.48521,8491.0,0.0
Amprion,Amprion,B411,B59,2.48521,1699.0,0.0
TransnetBW,TransnetBW,B418,B417,2.48521,1967.0,0.0
TenneT,TenneT,B422,B421,2.48521,6793.0,0.0
Amprion,Amprion,B424,B423,2.48521,6793.0,0.0
Amprion,Amprion,B426,B425,2.48521,3397.0,0.0
Amprion,Amprion,B428,B427,2.48521,10189.0,0.0
Amprion,Amprion,B433,B218,2.48521,8491.0,0.0
Amprion,Amprion,B435,B434,2.48521,5095.0,0.0
50Hertz,50Hertz,B437,B436,2.48521,11887.0,0.0
TransnetBW,TransnetBW,B441,B440,2.48521,5095.0,0.0
Amprion,Amprion,B443,B442,2.48521,3397.0,0.0
Amprion,Amprion,B447,B446,2.48521,1699.0,0.0
TransnetBW,TransnetBW,B463,B462,2.48521,5095.0,0.0
TransnetBW,TransnetBW,B28,B462,2.48521,1788.0,0.0
TransnetBW,TransnetBW,B28,B463,2.48521,5095.0,0.0
Amprion,Amprion,B471,B470,2.48521,6793.0,0.0
Amprion,Amprion,B473,B472,2.48521,3397.0,0.0
Amprion,Amprion,B262,B474,2.48521,3397.0,0.0
Amprion,Amprion,B479,B478,2.48521,3397.0,0.0
TenneT,TenneT,B482,B481,2.48521,8491.0,0.0
Amprion,Amprion,B491,B490,2.48521,5095.0,0.0
Amprion,Amprion,B494,B493,2.48521,15283.0,0.0
Amprion,Amprion,B497,B496,2.48521,3441.0,0.0
TenneT,TenneT,B499,B498,2.48521,3397.0,0.0
TransnetBW,TransnetBW,B504,B503,2.48521,5095.0,0.0
TransnetBW,TransnetBW,B511,B510,2.48521,6793.0,0.0
Amprion,Amprion,B512,B35,2.48521,5095.0,0.0
TransnetBW,TransnetBW,B513,B197,2.48521,5095.0,0.0
TenneT,TenneT,B516,B515,2.48521,10189.0,0.0
TenneT,TenneT,B522,B13,2.48521,16982.0,0.0
50Hertz,50Hertz,B531,B530,2.48521,3397.0,0.0
TenneT,TenneT,B534,B533,2.48521,3397.0,0.0
TenneT,TenneT,B540,B539,2.48521,5095.0,0.0
Amprion,Amprion,B60,B542,2.48521,10189.0,0.0
TenneT,TenneT,B554,B553,2.48521,3397.0,0.0
Amprion,Amprion,B557,B556,2.48521,5095.0,0.0
TenneT,TenneT,B563,B562,2.48521,492.0,0.0
Amprion,Amprion,B565,B564,2.48521,1699.0,0.0
TenneT,TenneT,B29,B571,2.48521,3575.0,0.0
TenneT,TenneT,B578,B577,2.48521,8491.0,0.0
TransnetBW,TransnetBW,B582,B171,2.48521,5095.0,0.0
TransnetBW,TransnetBW,B588,B587,2.48521,5095.0,0.0
TenneT,TenneT,B593,B592,2.48521,5095.0,0.0
50Hertz,50Hertz,B602,B601,2.48521,6793.0,0.0
TransnetBW,TransnetBW,B605,B604,2.48521,1699.0,0.0
50Hertz,50Hertz,B607,B271,2.48521,6793.0,0.0
TenneT,TenneT,B609,B608,2.48521,5095.0,0.0
50Hertz,50Hertz,B611,B610,2.48521,6793.0,0.0
Amprion,Amprion,B612,B239,2.48521,5095.0,0.0
Amprion,Amprion,B620,B619,2.48521,1699.0,0.0
Amprion,Amprion,B627,B626,2.48521,6793.0,0.0
TransnetBW,TransnetBW,B633,B206,2.48521,5095.0,0.0
TransnetBW,TransnetBW,B635,B634,2.48521,6793.0,0.0
TransnetBW,TransnetBW,B638,B38,2.48521,3397.0,0.0
Amprion,Amprion,B639,B46,2.48521,3397.0,0.0
Amprion,Amprion,B642,B641,2.48521,13585.0,0.0
Amprion,Amprion,B216,B649,2.48521,3397.0,0.0
TransnetBW,TransnetBW,B653,B652,2.48521,6793.0,0.0
TenneT,TenneT,B656,B91,2.48521,8491.0,0.0
50Hertz,50Hertz,B658,B657,2.48521,5095.0,0.0
TransnetBW,TransnetBW,B660,B659,2.48521,1699.0,0.0
Amprion,Amprion,B667,B666,2.48521,3397.0,0.0
50Hertz,50Hertz,B72,B672,2.48521,1699.0,0.0
TransnetBW,TransnetBW,B680,B679,2.48521,5095.0,0.0
TransnetBW,TransnetBW,B683,B682,2.48521,5095.0,0.0
Amprion,Amprion,B687,B117,2.48521,6793.0,0.0
TransnetBW,TransnetBW,B689,B105,2.48521,5095.0,0.0
TenneT,TenneT,B692,B691,2.48521,8491.0,0.0
Amprion,Amprion,B695,B694,2.48521,3397.0,0.0
TenneT,TenneT,B697,B696,2.48521,3397.0,0.0
Amprion,Amprion,B238,B701,2.48521,3397.0,0.0
TransnetBW,TransnetBW,B718,B717,2.48521,3397.0,0.0
TransnetBW,TransnetBW,B44,B717,2.48521,1788.0,0.0
TransnetBW,TransnetBW,B44,B718,2.48521,3397.0,0.0
TenneT,TenneT,B719,B116,2.48521,6793.0,0.0
TransnetBW,TransnetBW,B723,B722,2.48521,5095.0,0.0
TenneT,TenneT,B727,B726,2.48521,1699.0,0.0
TransnetBW,TransnetBW,B736,B735,2.48521,15283.0,0.0
Amprion,Amprion,B142,B743,2.48521,5095.0,0.0
50Hertz,50Hertz,B749,B748,2.48521,3397.0,0.0
50Hertz,50Hertz,B750,B155,2.48521,1699.0,0.0
50Hertz,50Hertz,B753,B752,2.48521,5095.0,0.0
50Hertz,50Hertz,B759,B758,2.48521,10189.0,0.0
TenneT,TenneT,B766,B765,2.48521,8491.0,0.0
50Hertz,50Hertz,B770,B769,2.48521,16982.0,0.0
Amprion,Amprion,B777,B776,2.48521,3397.0,0.0
Amprion,Amprion,B782,B781,2.48521,6793.0,0.0
Amprion,Amprion,B784,B783,2.48521,1699.0,0.0
TenneT,TenneT,B786,B785,2.48521,6793.0,0.0
Amprion,Amprion,B788,B787,2.48521,3397.0,0.0
TransnetBW,TransnetBW,B221,B789,2.48521,6793.0,0.0
Amprion,Amprion,B791,B78,2.48521,3397.0,0.0
